Circuit: * C:\Users\Luis\Documents\GitHub\Echosounder\Simulation\LTspice\Transducer_20mm_2_ajust.asc

x12:tload: using linear interpolation because trytocompact option specified
x9:tpzt: using linear interpolation because trytocompact option specified
x8:tload: using linear interpolation because trytocompact option specified
x5:tpzt: using linear interpolation because trytocompact option specified
x4:tload: using linear interpolation because trytocompact option specified
x1:tpzt: using linear interpolation because trytocompact option specified

Date: Sat May 24 15:34:40 2025
Total elapsed time: 0.049 seconds.

tnom = 27
temp = 27
method = trap
totiter = 0
traniter = 0
tranpoints = 0
accept = 0
rejected = 0
matrix size = 51
fillins = 30
solver = Normal

